data_020(-255.842)
_audit_creation_date              2022-12-12
_audit_creation_method            'Materials Studio'
_symmetry_space_group_name_H-M    'P1'
_symmetry_Int_Tables_number       1
_symmetry_cell_setting            triclinic
loop_
_symmetry_equiv_pos_as_xyz
  x,y,z
_cell_length_a                    17.3028
_cell_length_b                    17.3028
_cell_length_c                    18.0000
_cell_angle_alpha                 90.0000
_cell_angle_beta                  90.0000
_cell_angle_gamma                 120.0000
loop_
_atom_site_label
_atom_site_type_symbol
_atom_site_fract_x
_atom_site_fract_y
_atom_site_fract_z
_atom_site_U_iso_or_equiv
_atom_site_adp_type
_atom_site_occupancy
C1     C     0.83106   0.74324   0.46826   0.00000  Uiso   1.00
C2     C     0.58492   0.57284   0.47167   0.00000  Uiso   1.00
C3     C     0.26277   0.57236   0.47890   0.00000  Uiso   1.00
C4     C     0.34528   0.57630   0.47782   0.00000  Uiso   1.00
C5     C     0.50966   0.33538   0.47158   0.00000  Uiso   1.00
C6     C     0.75246   0.66072   0.46769   0.00000  Uiso   1.00
C7     C     0.75453   0.81918   0.47641   0.00000  Uiso   1.00
C8     C     0.50932   0.42097   0.47131   0.00000  Uiso   1.00
C9     C     0.58660   0.25174   0.47127   0.00000  Uiso   1.00
C10    C     0.18664   0.41985   0.47177   0.00000  Uiso   1.00
C11    C     0.67217   0.74039   0.47604   0.00000  Uiso   1.00
C12    C     0.34718   0.49635   0.47363   0.00000  Uiso   1.00
C13    C     0.43305   0.49656   0.47267   0.00000  Uiso   1.00
C14    C     0.58996   0.33399   0.46994   0.00000  Uiso   1.00
C15    C     0.26540   0.41624   0.47053   0.00000  Uiso   1.00
C16    C     0.42975   0.25337   0.47411   0.00000  Uiso   1.00
C17    C     0.67056   0.65871   0.47171   0.00000  Uiso   1.00
C18    C     0.43392   0.17491   0.47532   0.00000  Uiso   1.00
N1     N     0.50887   0.57612   0.47272   0.00000  Uiso   1.00
N2     N     0.42975   0.41721   0.47200   0.00000  Uiso   1.00
N3     N     0.51046   0.17284   0.47406   0.00000  Uiso   1.00
N4     N     0.18408   0.49602   0.47594   0.00000  Uiso   1.00
N5     N     0.83334   0.82184   0.47262   0.00000  Uiso   1.00
N6     N     0.58866   0.49703   0.47085   0.00000  Uiso   1.00
H1     H     0.36596   0.25162   0.47528   0.00000  Uiso   1.00
H2     H     0.89586   0.74675   0.46513   0.00000  Uiso   1.00
H3     H     0.75404   0.59867   0.46421   0.00000  Uiso   1.00
H4     H     0.25935   0.63371   0.48232   0.00000  Uiso   1.00
H5     H     0.60994   0.74165   0.47917   0.00000  Uiso   1.00
H6     H     0.40741   0.63994   0.48027   0.00000  Uiso   1.00
H7     H     0.37261   0.11001   0.47754   0.00000  Uiso   1.00
H8     H     0.12190   0.35836   0.46934   0.00000  Uiso   1.00
H9     H     0.75773   0.88381   0.47997   0.00000  Uiso   1.00
H10    H     0.64825   0.24873   0.47017   0.00000  Uiso   1.00
H11    H     0.26404   0.35272   0.46720   0.00000  Uiso   1.00
H12    H     0.65345   0.39630   0.46780   0.00000  Uiso   1.00
loop_
_geom_bond_atom_site_label_1
_geom_bond_atom_site_label_2
_geom_bond_distance
_geom_bond_site_symmetry_2
_ccdc_geom_bond_type
C1     C6      1.395   .     S
C1     N5      1.343   .     D
C1     H2      1.094   .     S
C2     C17     1.484   .     S
C2     N1      1.345   .     S
C2     N6      1.345   .     D
C3     C4      1.395   .     S
C3     N4      1.343   .     D
C3     H4      1.094   .     S
C4     C12     1.402   .     D
C4     H6      1.089   .     S
C5     C8      1.484   .     S
C5     C14     1.402   .     D
C5     C16     1.402   .     S
C6     C17     1.402   .     D
C6     H3      1.089   .     S
C7     C11     1.395   .     D
C7     N5      1.343   .     S
C7     H9      1.094   .     S
C8     N2      1.345   .     D
C8     N6      1.345   .     S
C9     C14     1.395   .     S
C9     N3      1.343   .     D
C9     H10     1.094   .     S
C10    C15     1.395   .     D
C10    N4      1.343   .     S
C10    H8      1.094   .     S
C11    C17     1.402   .     S
C11    H5      1.089   .     S
C12    C13     1.484   .     S
C12    C15     1.402   .     S
C13    N1      1.345   .     D
C13    N2      1.345   .     S
C14    H12     1.089   .     S
C15    H11     1.089   .     S
C16    C18     1.395   .     D
C16    H1      1.089   .     S
C18    N3      1.343   .     S
C18    H7      1.094   .     S
